<?xml version="1.0" encoding="UTF-8"?>

<!-- generated on 01/05/15 16:41:40 by SUMO duarouter Version 0.21.0
<?xml version="1.0" encoding="UTF-8"?>

<configuration xmlns:xsi="http://www.w3.org/2001/XMLSchema-instance" xsi:noNamespaceSchemaLocation="http://sumo-sim.org/xsd/duarouterConfiguration.xsd">

    <input>
        <net-file value="grid/grid10.net.xml"/>
        <trip-files value="grid/gridtrips.trips.xml"/>
    </input>

    <output>
        <output-file value="grid/gridroutes.rou.xml"/>
    </output>

    <processing>
        <ignore-errors value="true"/>
    </processing>

    <time>
        <begin value="0"/>
        <end value="600.0"/>
    </time>

    <report>
        <no-step-log value="true"/>
    </report>

</configuration>
-->

<routes xmlns:xsi="http://www.w3.org/2001/XMLSchema-instance" xsi:noNamespaceSchemaLocation="http://sumo-sim.org/xsd/routes_file.xsd">
    <vType id="emergency" length="6.2" width="3" color="1,0,1" speedFactor="1.5"></vType>
	<vehicle id="0" depart="0.00">
        <route edges="5/1to5/2 5/2to5/3 5/3to5/4 5/4to6/4 6/4to7/4 7/4to7/5"/>
    </vehicle>
    <vehicle id="1" depart="0.80">
        <route edges="0/3to0/2 0/2to0/3 0/3to0/4 0/4to0/5 0/5to1/5 1/5to2/5 2/5to1/5"/>
    </vehicle>
    <vehicle id="2" depart="1.60">
        <route edges="3/8to2/8 2/8to1/8 1/8to1/7 1/7to1/6 1/6to1/5 1/5to1/4 1/4to0/4"/>
    </vehicle>
    <vehicle id="3" depart="2.40">
        <route edges="9/9to9/8 9/8to8/8 8/8to7/8 7/8to6/8 6/8to5/8 5/8to4/8 4/8to4/9"/>
    </vehicle>
    <vehicle id="4" depart="3.20">
        <route edges="6/6to6/7 6/7to5/7 5/7to5/8 5/8to4/8"/>
    </vehicle>
    <vehicle id="5" depart="4.00">
        <route edges="0/2to0/3 0/3to0/4 0/4to0/5 0/5to0/6 0/6to0/7 0/7to0/8 0/8to1/8 1/8to1/9 1/9to2/9 2/9to2/8"/>
    </vehicle>
    <vehicle id="6" depart="4.80">
        <route edges="3/9to3/8 3/8to4/8 4/8to5/8 5/8to6/8 6/8to7/8 7/8to8/8 8/8to7/8"/>
    </vehicle>
    <vehicle id="7" depart="5.60">
        <route edges="6/3to5/3 5/3to4/3 4/3to5/3"/>
    </vehicle>
    <vehicle id="8" depart="6.40">
        <route edges="8/6to8/5 8/5to7/5 7/5to6/5 6/5to5/5 5/5to4/5 4/5to3/5 3/5to3/4 3/4to3/3 3/3to3/2 3/2to3/1"/>
    </vehicle>
    <vehicle id="9" depart="7.20">
        <route edges="7/5to7/4 7/4to6/4 6/4to5/4 5/4to4/4 4/4to3/4 3/4to2/4 2/4to1/4 1/4to1/3 1/3to1/2 1/2to1/1 1/1to1/0"/>
    </vehicle>
    <vehicle id="10" depart="8.00">
        <route edges="4/5to4/4 4/4to4/5 4/5to4/6 4/6to4/7 4/7to4/8 4/8to4/9 4/9to5/9 5/9to6/9 6/9to7/9 7/9to8/9 8/9to9/9 9/9to8/9"/>
    </vehicle>
    <vehicle id="11" depart="8.80">
        <route edges="9/8to9/9 9/9to9/8 9/8to8/8"/>
    </vehicle>
    <vehicle id="12" depart="9.60">
        <route edges="2/7to1/7 1/7to1/6 1/6to1/5 1/5to1/4 1/4to1/3 1/3to2/3 2/3to3/3 3/3to4/3 4/3to5/3 5/3to6/3 6/3to7/3 7/3to8/3 8/3to9/3 9/3to9/4"/>
    </vehicle>
    <vehicle id="13" depart="10.40">
        <route edges="0/9to1/9 1/9to1/8 1/8to1/7 1/7to1/6 1/6to1/5 1/5to1/4 1/4to1/3"/>
    </vehicle>
    <vehicle id="14" depart="11.20">
        <route edges="3/7to4/7 4/7to4/6 4/6to4/5 4/5to4/4 4/4to4/3 4/3to4/2 4/2to3/2"/>
    </vehicle>
    <vehicle id="15" depart="12.00">
        <route edges="9/1to9/0 9/0to8/0 8/0to7/0 7/0to6/0 6/0to5/0 5/0to4/0 4/0to4/1 4/1to4/2 4/2to4/3 4/3to4/4 4/4to3/4"/>
    </vehicle>
    <vehicle id="16" depart="12.80">
        <route edges="1/6to2/6 2/6to2/5 2/5to2/4 2/4to2/3 2/3to2/2 2/2to3/2 3/2to4/2 4/2to5/2 5/2to6/2 6/2to7/2 7/2to7/1"/>
    </vehicle>
    <vehicle id="17" depart="13.60">
        <route edges="9/8to9/7 9/7to8/7 8/7to7/7 7/7to6/7 6/7to5/7 5/7to5/8"/>
    </vehicle>
    <vehicle id="18" depart="14.40">
        <route edges="5/7to5/6 5/6to5/5 5/5to5/4 5/4to5/3 5/3to5/2 5/2to5/1 5/1to6/1 6/1to7/1 7/1to8/1 8/1to8/2"/>
    </vehicle>
    <vehicle id="19" depart="15.20">
        <route edges="1/0to1/1 1/1to1/0 1/0to2/0 2/0to3/0 3/0to4/0 4/0to5/0 5/0to6/0 6/0to7/0 7/0to8/0 8/0to8/1"/>
    </vehicle>
    <vehicle id="20" depart="16.00">
        <route edges="8/2to9/2 9/2to8/2 8/2to7/2 7/2to7/3 7/3to7/4 7/4to6/4"/>
    </vehicle>
    <vehicle id="21" depart="16.80">
        <route edges="1/4to0/4 0/4to0/3 0/3to0/2 0/2to1/2 1/2to2/2 2/2to3/2 3/2to4/2 4/2to5/2 5/2to6/2 6/2to7/2 7/2to8/2 8/2to7/2"/>
    </vehicle>
    <vehicle id="22" depart="17.60">
        <route edges="0/6to0/7 0/7to0/8 0/8to0/9 0/9to1/9"/>
    </vehicle>
    <vehicle id="23" depart="18.40">
        <route edges="1/6to0/6 0/6to1/6 1/6to1/5"/>
    </vehicle>
    <vehicle id="24" depart="19.20">
        <route edges="9/2to8/2 8/2to8/3 8/3to8/4 8/4to8/5 8/5to9/5 9/5to8/5"/>
    </vehicle>
    <vehicle id="25" depart="20.00">
        <route edges="1/6to0/6 0/6to0/5 0/5to0/4 0/4to0/3 0/3to0/2 0/2to0/1 0/1to1/1 1/1to2/1 2/1to2/0"/>
    </vehicle>
    <vehicle id="26" depart="20.80">
        <route edges="5/3to5/2 5/2to4/2 4/2to3/2 3/2to2/2 2/2to1/2 1/2to0/2 0/2to0/3 0/3to0/4 0/4to1/4"/>
    </vehicle>
    <vehicle id="27" depart="21.60">
        <route edges="6/0to5/0 5/0to5/1 5/1to5/2 5/2to5/3 5/3to5/4 5/4to5/5 5/5to6/5 6/5to7/5 7/5to8/5 8/5to9/5"/>
    </vehicle>
    <vehicle id="28" depart="22.40">
        <route edges="7/8to8/8 8/8to7/8 7/8to6/8 6/8to5/8 5/8to4/8 4/8to3/8 3/8to2/8 2/8to1/8 1/8to1/7 1/7to1/6 1/6to1/5 1/5to2/5"/>
    </vehicle>
    <vehicle id="29" depart="23.20">
        <route edges="1/1to1/2 1/2to2/2 2/2to2/3"/>
    </vehicle>
    <vehicle id="30" depart="24.00">
        <route edges="3/8to4/8 4/8to3/8 3/8to3/7 3/7to3/6 3/6to3/5 3/5to3/4 3/4to3/3 3/3to3/2 3/2to3/1 3/1to4/1"/>
    </vehicle>
    <vehicle id="31" depart="24.80">
        <route edges="9/2to9/1 9/1to8/1 8/1to7/1 7/1to6/1 6/1to6/2 6/2to6/3 6/3to6/4"/>
    </vehicle>
    <vehicle id="32" depart="25.60">
        <route edges="4/2to3/2 3/2to3/3 3/3to3/4 3/4to3/5 3/5to3/6 3/6to3/7 3/7to3/8 3/8to3/9 3/9to4/9 4/9to5/9 5/9to6/9 6/9to7/9 7/9to8/9 8/9to9/9"/>
    </vehicle>
    <vehicle id="33" depart="26.40">
        <route edges="8/6to7/6 7/6to6/6 6/6to6/7"/>
    </vehicle>
    <vehicle id="34" depart="27.20">
        <route edges="8/9to9/9 9/9to8/9 8/9to7/9 7/9to6/9 6/9to5/9 5/9to4/9 4/9to3/9 3/9to2/9 2/9to1/9 1/9to1/8 1/8to0/8 0/8to0/7 0/7to0/6 0/6to0/5 0/5to0/4 0/4to0/3 0/3to0/2 0/2to0/1 0/1to0/2"/>
    </vehicle>
    <vehicle id="35" depart="28.00">
        <route edges="2/4to2/3 2/3to2/4 2/4to2/5 2/5to2/6 2/6to2/7 2/7to3/7 3/7to4/7 4/7to5/7 5/7to6/7 6/7to7/7 7/7to8/7 8/7to9/7"/>
    </vehicle>
    <vehicle id="36" depart="28.80">
        <route edges="0/3to0/2 0/2to0/3 0/3to0/4 0/4to0/5 0/5to0/6 0/6to0/7 0/7to1/7 1/7to2/7 2/7to3/7 3/7to4/7 4/7to3/7"/>
    </vehicle>
    <vehicle id="37" depart="29.60">
        <route edges="5/7to5/6 5/6to5/5 5/5to5/4 5/4to5/3 5/3to5/2 5/2to6/2 6/2to7/2 7/2to8/2 8/2to7/2"/>
    </vehicle>
    <vehicle id="38" depart="30.40">
        <route edges="2/7to1/7 1/7to1/6 1/6to1/5 1/5to1/4 1/4to1/3 1/3to1/2 1/2to2/2 2/2to3/2 3/2to4/2 4/2to3/2"/>
    </vehicle>
    <vehicle id="39" depart="31.20">
        <route edges="3/4to4/4 4/4to4/5 4/5to4/6 4/6to5/6 5/6to5/7"/>
    </vehicle>
    <vehicle id="40" depart="32.00">
        <route edges="6/8to6/7 6/7to6/6 6/6to6/5 6/5to6/4 6/4to6/3 6/3to6/2 6/2to6/1 6/1to6/0 6/0to7/0 7/0to8/0 8/0to9/0 9/0to8/0"/>
    </vehicle>
    <vehicle id="41" depart="32.80">
        <route edges="2/6to3/6 3/6to2/6 2/6to2/5 2/5to1/5"/>
    </vehicle>
    <vehicle id="42" depart="33.60">
        <route edges="8/4to7/4 7/4to6/4 6/4to5/4 5/4to4/4 4/4to3/4 3/4to2/4 2/4to1/4 1/4to0/4 0/4to0/5"/>
    </vehicle>
    <vehicle id="43" depart="34.40">
        <route edges="1/4to1/5 1/5to0/5 0/5to0/4 0/4to0/3 0/3to0/2 0/2to0/1 0/1to0/0"/>
    </vehicle>
    <vehicle id="44" depart="35.20">
        <route edges="3/7to4/7 4/7to4/6 4/6to5/6 5/6to6/6 6/6to6/7"/>
    </vehicle>
    <vehicle id="45" depart="36.00">
        <route edges="1/7to2/7 2/7to2/6 2/6to3/6 3/6to4/6 4/6to5/6 5/6to6/6 6/6to7/6"/>
    </vehicle>
    <vehicle id="46" depart="36.80">
        <route edges="1/4to1/3 1/3to1/4 1/4to1/5 1/5to1/6 1/6to1/7 1/7to1/8 1/8to2/8 2/8to3/8 3/8to3/9"/>
    </vehicle>
    <vehicle id="47" depart="37.60">
        <route edges="5/8to5/9 5/9to4/9 4/9to3/9 3/9to2/9 2/9to2/8 2/8to2/7 2/7to2/6 2/6to2/5 2/5to2/4 2/4to2/3 2/3to3/3"/>
    </vehicle>
    <vehicle id="48" depart="38.40">
        <route edges="3/7to4/7 4/7to4/6 4/6to4/5 4/5to4/4 4/4to4/3 4/3to4/2 4/2to5/2 5/2to6/2 6/2to7/2 7/2to7/3"/>
    </vehicle>
    <vehicle id="49" depart="39.20">
        <route edges="1/0to1/1 1/1to1/0 1/0to2/0 2/0to3/0 3/0to4/0 4/0to5/0 5/0to6/0 6/0to7/0 7/0to8/0"/>
    </vehicle>
    <vehicle id="50" depart="40.00">
        <route edges="8/2to8/3 8/3to7/3 7/3to6/3 6/3to5/3 5/3to4/3 4/3to3/3 3/3to2/3 2/3to1/3 1/3to1/4 1/4to1/5 1/5to1/6 1/6to1/7"/>
    </vehicle>
    <vehicle id="51" depart="40.80">
        <route edges="0/3to1/3 1/3to1/4 1/4to1/5 1/5to1/6 1/6to2/6 2/6to3/6 3/6to4/6 4/6to4/7"/>
    </vehicle>
    <vehicle id="52" depart="41.60">
        <route edges="3/4to4/4 4/4to4/3 4/3to5/3 5/3to6/3 6/3to7/3 7/3to8/3 8/3to8/2"/>
    </vehicle>
    <vehicle id="53" depart="42.40">
        <route edges="0/5to1/5 1/5to1/4 1/4to1/3 1/3to1/2 1/2to1/1 1/1to1/2"/>
    </vehicle>
    <vehicle id="54" depart="43.20">
        <route edges="8/8to7/8 7/8to6/8 6/8to5/8 5/8to5/7 5/7to5/8"/>
    </vehicle>
    <vehicle id="55" depart="44.00">
        <route edges="5/5to5/6 5/6to5/5 5/5to5/4 5/4to5/3 5/3to6/3"/>
    </vehicle>
    <vehicle id="56" depart="44.80">
        <route edges="9/8to9/7 9/7to8/7 8/7to7/7 7/7to7/6 7/6to7/5 7/5to7/4 7/4to7/3 7/3to7/2 7/2to8/2"/>
    </vehicle>
    <vehicle id="57" depart="45.60">
        <route edges="0/8to0/9 0/9to0/8 0/8to0/7 0/7to0/6 0/6to1/6 1/6to2/6 2/6to3/6 3/6to4/6 4/6to5/6 5/6to5/7"/>
    </vehicle>
    <vehicle id="58" depart="46.40">
        <route edges="7/8to6/8 6/8to7/8 7/8to8/8 8/8to8/7"/>
    </vehicle>
    <vehicle id="59" depart="47.20">
        <route edges="7/8to8/8 8/8to7/8 7/8to6/8 6/8to5/8 5/8to5/7 5/7to5/6 5/6to5/5 5/5to5/4 5/4to5/3 5/3to5/2 5/2to5/1 5/1to5/0"/>
    </vehicle>
    <vehicle id="60" depart="48.00">
        <route edges="6/5to7/5 7/5to7/4 7/4to7/3 7/3to7/2 7/2to7/1 7/1to7/0 7/0to8/0"/>
    </vehicle>
    <vehicle id="61" depart="48.80">
        <route edges="2/3to3/3 3/3to4/3 4/3to5/3 5/3to6/3 6/3to7/3 7/3to7/2"/>
    </vehicle>
    <vehicle id="62" depart="49.60">
        <route edges="0/3to0/2 0/2to0/1 0/1to1/1 1/1to2/1 2/1to3/1 3/1to4/1 4/1to5/1 5/1to6/1"/>
    </vehicle>
    <vehicle id="63" depart="50.40">
        <route edges="1/1to0/1 0/1to0/2 0/2to0/3 0/3to0/4 0/4to0/5 0/5to1/5 1/5to2/5 2/5to3/5 3/5to4/5 4/5to5/5 5/5to6/5 6/5to7/5 7/5to7/6"/>
    </vehicle>
    <vehicle id="64" depart="51.20">
        <route edges="1/1to2/1 2/1to3/1 3/1to4/1 4/1to5/1 5/1to6/1 6/1to7/1 7/1to7/0"/>
    </vehicle>
    <vehicle id="65" depart="52.00">
        <route edges="2/1to1/1 1/1to1/2 1/2to1/3 1/3to1/4 1/4to1/5 1/5to1/6 1/6to1/7 1/7to1/8 1/8to1/9 1/9to2/9 2/9to3/9"/>
    </vehicle>
    <vehicle id="66" depart="52.80">
        <route edges="2/7to1/7 1/7to1/6 1/6to1/5 1/5to1/4 1/4to2/4 2/4to3/4 3/4to3/5"/>
    </vehicle>
    <vehicle id="67" depart="53.60">
        <route edges="5/4to5/5 5/5to5/6 5/6to5/7 5/7to5/8 5/8to6/8 6/8to7/8 7/8to8/8 8/8to9/8"/>
    </vehicle>
    <vehicle id="68" depart="54.40">
        <route edges="4/3to4/4 4/4to4/3 4/3to5/3 5/3to6/3 6/3to7/3 7/3to6/3"/>
    </vehicle>
    <vehicle id="69" depart="55.20">
        <route edges="7/8to7/7 7/7to7/6 7/6to7/5 7/5to7/4 7/4to7/3 7/3to7/2 7/2to7/1 7/1to8/1 8/1to9/1 9/1to8/1"/>
    </vehicle>
    <vehicle id="70" depart="56.00">
        <route edges="6/5to5/5 5/5to4/5 4/5to3/5 3/5to2/5 2/5to1/5 1/5to1/6 1/6to1/7 1/7to1/8 1/8to1/9 1/9to2/9"/>
    </vehicle>
    <vehicle id="71" depart="56.80">
        <route edges="0/5to0/4 0/4to0/5 0/5to0/6 0/6to1/6 1/6to2/6 2/6to3/6 3/6to4/6 4/6to5/6 5/6to5/7"/>
    </vehicle>
    <vehicle id="72" depart="57.60">
        <route edges="5/9to6/9 6/9to5/9 5/9to4/9 4/9to3/9 3/9to2/9 2/9to1/9 1/9to1/8 1/8to1/7 1/7to1/6 1/6to1/5 1/5to1/6"/>
    </vehicle>
    <vehicle id="73" depart="58.40">
        <route edges="9/6to8/6 8/6to7/6 7/6to7/5 7/5to7/4 7/4to7/3"/>
    </vehicle>
    <vehicle id="74" depart="59.20">
        <route edges="1/6to0/6 0/6to0/5 0/5to0/4 0/4to0/3 0/3to1/3 1/3to2/3 2/3to3/3 3/3to4/3 4/3to5/3 5/3to6/3 6/3to5/3"/>
    </vehicle>
    <vehicle id="75" depart="60.00">
        <route edges="4/3to4/2 4/2to4/1 4/1to5/1 5/1to6/1 6/1to7/1 7/1to8/1 8/1to9/1 9/1to9/0"/>
    </vehicle>
    <vehicle id="76" depart="60.80">
        <route edges="3/0to2/0 2/0to1/0 1/0to1/1 1/1to0/1 0/1to0/2 0/2to1/2"/>
    </vehicle>
    <vehicle id="77" depart="61.60">
        <route edges="0/7to1/7 1/7to1/6 1/6to1/5 1/5to1/4 1/4to1/3 1/3to2/3 2/3to3/3 3/3to4/3 4/3to5/3 5/3to4/3"/>
    </vehicle>
    <vehicle id="78" depart="62.40">
        <route edges="5/4to5/5 5/5to5/4 5/4to5/3 5/3to5/2 5/2to5/1 5/1to6/1 6/1to7/1 7/1to8/1 8/1to9/1 9/1to9/0"/>
    </vehicle>
    <vehicle id="79" depart="63.20">
        <route edges="8/1to7/1 7/1to7/2 7/2to7/3 7/3to7/4 7/4to7/5 7/5to7/6 7/6to7/7 7/7to7/8 7/8to8/8 8/8to9/8 9/8to9/9"/>
    </vehicle>
    <vehicle id="80" depart="64.00">
        <route edges="2/3to1/3 1/3to1/2 1/2to1/1 1/1to2/1 2/1to3/1 3/1to4/1 4/1to5/1 5/1to6/1 6/1to6/0"/>
    </vehicle>
    <vehicle id="81" depart="64.80">
        <route edges="6/5to7/5 7/5to6/5 6/5to5/5 5/5to5/6 5/6to4/6"/>
    </vehicle>
    <vehicle id="82" depart="65.60">
        <route edges="6/9to6/8 6/8to5/8 5/8to4/8 4/8to3/8 3/8to2/8 2/8to2/7 2/7to2/6 2/6to2/5 2/5to2/4 2/4to2/3 2/3to2/2 2/2to2/1"/>
    </vehicle>
    <vehicle id="83" depart="66.40">
        <route edges="6/5to7/5 7/5to7/6 7/6to7/7 7/7to6/7"/>
    </vehicle>
    <vehicle id="84" depart="67.20">
        <route edges="0/0to1/0 1/0to1/1 1/1to1/2 1/2to1/3 1/3to1/4 1/4to1/5 1/5to1/6 1/6to2/6 2/6to3/6 3/6to4/6 4/6to4/5"/>
    </vehicle>
    <vehicle id="85" depart="68.00">
        <route edges="7/2to7/1 7/1to6/1 6/1to5/1 5/1to4/1 4/1to4/0 4/0to3/0"/>
    </vehicle>
    <vehicle id="86" depart="68.80">
        <route edges="9/3to9/4 9/4to8/4 8/4to7/4 7/4to7/5 7/5to7/6 7/6to8/6"/>
    </vehicle>
    <vehicle id="87" depart="69.60">
        <route edges="0/1to0/0 0/0to0/1 0/1to0/2 0/2to0/3 0/3to0/4 0/4to0/5 0/5to0/6 0/6to0/7 0/7to0/8 0/8to1/8 1/8to2/8 2/8to1/8"/>
    </vehicle>
    <vehicle id="88" depart="70.40">
        <route edges="3/4to3/5 3/5to2/5 2/5to2/6 2/6to2/7"/>
    </vehicle>
    <vehicle id="89" depart="71.20">
        <route edges="5/9to4/9 4/9to3/9 3/9to3/8 3/8to3/7 3/7to3/6 3/6to3/5 3/5to3/4 3/4to3/3 3/3to3/2 3/2to2/2"/>
    </vehicle>
    <vehicle id="90" depart="72.00">
        <route edges="1/7to0/7 0/7to0/6 0/6to0/5 0/5to0/4 0/4to0/3 0/3to0/2 0/2to0/1 0/1to1/1 1/1to1/0 1/0to2/0 2/0to3/0 3/0to4/0 4/0to5/0 5/0to6/0 6/0to7/0"/>
    </vehicle>
    <vehicle id="91" depart="72.80">
        <route edges="7/2to7/3 7/3to7/2 7/2to7/1 7/1to8/1 8/1to9/1"/>
    </vehicle>
    <vehicle id="92" depart="73.60">
        <route edges="2/3to1/3 1/3to1/2 1/2to2/2 2/2to3/2 3/2to4/2"/>
    </vehicle>
    <vehicle id="93" depart="74.40">
        <route edges="7/8to6/8 6/8to5/8 5/8to5/7 5/7to5/6 5/6to5/5 5/5to4/5"/>
    </vehicle>
    <vehicle id="94" depart="75.20">
        <route edges="8/4to9/4 9/4to8/4 8/4to7/4 7/4to6/4 6/4to5/4 5/4to4/4 4/4to3/4 3/4to2/4 2/4to1/4 1/4to1/3 1/3to0/3"/>
    </vehicle>
    <vehicle id="95" depart="76.00">
        <route edges="2/7to3/7 3/7to3/6 3/6to4/6 4/6to5/6 5/6to6/6 6/6to6/5"/>
    </vehicle>
    <vehicle id="96" depart="76.80">
        <route edges="6/9to7/9 7/9to6/9 6/9to5/9 5/9to4/9 4/9to3/9 3/9to2/9 2/9to1/9 1/9to1/8 1/8to1/7 1/7to1/6 1/6to1/5 1/5to1/4 1/4to2/4"/>
    </vehicle>
    <vehicle id="97" depart="77.60">
        <route edges="5/6to4/6 4/6to3/6 3/6to3/7 3/7to3/8 3/8to3/9 3/9to2/9"/>
    </vehicle>
    <vehicle id="98" depart="78.40">
        <route edges="6/5to6/4 6/4to7/4 7/4to8/4 8/4to9/4"/>
    </vehicle>
    <vehicle id="99" depart="79.20">
        <route edges="7/6to6/6 6/6to5/6 5/6to4/6 4/6to3/6 3/6to2/6 2/6to2/5 2/5to2/4 2/4to2/3 2/3to2/2 2/2to3/2"/>
    </vehicle>
    <vehicle id="100" depart="80.00">
        <route edges="5/3to6/3 6/3to5/3 5/3to4/3 4/3to3/3 3/3to2/3 2/3to1/3 1/3to1/4 1/4to1/5 1/5to1/6 1/6to1/7 1/7to1/8 1/8to1/9 1/9to2/9"/>
    </vehicle>
    <vehicle id="101" depart="80.80">
        <route edges="1/7to1/6 1/6to1/5 1/5to1/4 1/4to2/4 2/4to3/4 3/4to3/3"/>
    </vehicle>
    <vehicle id="102" depart="81.60">
        <route edges="1/7to2/7 2/7to2/6 2/6to2/5 2/5to2/4 2/4to3/4 3/4to4/4 4/4to5/4 5/4to6/4 6/4to7/4 7/4to6/4"/>
    </vehicle>
    <vehicle id="103" depart="82.40">
        <route edges="6/2to5/2 5/2to4/2 4/2to4/3 4/3to4/4 4/4to4/5 4/5to3/5"/>
    </vehicle>
    <vehicle id="104" depart="83.20">
        <route edges="6/2to6/1 6/1to6/2 6/2to7/2 7/2to8/2 8/2to8/1"/>
    </vehicle>
    <vehicle id="105" depart="84.00">
        <route edges="9/1to9/0 9/0to8/0 8/0to7/0 7/0to6/0 6/0to5/0 5/0to4/0 4/0to3/0 3/0to2/0 2/0to1/0 1/0to1/1 1/1to1/2 1/2to1/3 1/3to1/4 1/4to1/5 1/5to1/6 1/6to1/7 1/7to1/8 1/8to1/9"/>
    </vehicle>
    <vehicle id="106" depart="84.80">
        <route edges="8/3to9/3 9/3to8/3 8/3to7/3 7/3to6/3 6/3to5/3 5/3to5/2 5/2to5/1 5/1to5/0"/>
    </vehicle>
    <vehicle id="107" depart="85.60">
        <route edges="6/6to5/6 5/6to4/6 4/6to3/6 3/6to2/6 2/6to1/6 1/6to1/5 1/5to1/4 1/4to1/3 1/3to1/2 1/2to1/1 1/1to0/1"/>
    </vehicle>
    <vehicle id="108" depart="86.40">
        <route edges="8/7to9/7 9/7to8/7 8/7to8/6 8/6to8/5 8/5to8/4 8/4to8/3 8/3to8/2 8/2to8/1 8/1to8/0 8/0to8/1"/>
    </vehicle>
    <vehicle id="109" depart="87.20">
        <route edges="3/0to4/0 4/0to3/0 3/0to2/0 2/0to2/1 2/1to1/1"/>
    </vehicle>
    <vehicle id="110" depart="88.00">
        <route edges="4/6to3/6 3/6to3/5 3/5to3/4 3/4to3/3 3/3to3/2 3/2to3/3"/>
    </vehicle>
    <vehicle id="111" depart="88.80">
        <route edges="3/1to2/1 2/1to2/2 2/2to2/3 2/3to2/4 2/4to2/5 2/5to2/6 2/6to2/7 2/7to2/8 2/8to3/8 3/8to4/8 4/8to5/8 5/8to6/8 6/8to7/8 7/8to8/8"/>
    </vehicle>
    <vehicle id="112" depart="89.60">
        <route edges="3/3to2/3 2/3to2/2 2/2to3/2 3/2to4/2 4/2to5/2 5/2to6/2 6/2to7/2 7/2to8/2 8/2to9/2"/>
    </vehicle>
    <vehicle id="113" depart="90.40">
        <route edges="3/0to2/0 2/0to3/0 3/0to4/0 4/0to5/0"/>
    </vehicle>
    <vehicle id="114" depart="91.20">
        <route edges="1/9to1/8 1/8to1/9 1/9to2/9 2/9to3/9 3/9to4/9 4/9to5/9 5/9to6/9 6/9to7/9"/>
    </vehicle>
    <vehicle id="115" depart="92.00">
        <route edges="7/8to8/8 8/8to7/8 7/8to6/8 6/8to6/7 6/7to6/6 6/6to6/5 6/5to6/4 6/4to6/3 6/3to6/2 6/2to7/2"/>
    </vehicle>
    <vehicle id="116" depart="92.80">
        <route edges="0/0to1/0 1/0to1/1 1/1to1/2"/>
    </vehicle>
    <vehicle id="117" depart="93.60">
        <route edges="7/2to6/2 6/2to5/2 5/2to4/2 4/2to3/2 3/2to2/2 2/2to2/1 2/1to3/1"/>
    </vehicle>
    <vehicle id="118" depart="94.40">
        <route edges="3/5to4/5 4/5to4/6 4/6to3/6"/>
    </vehicle>
    <vehicle id="119" depart="95.20">
        <route edges="8/6to8/7 8/7to8/6 8/6to8/5 8/5to9/5 9/5to9/6"/>
    </vehicle>
    <vehicle id="120" depart="96.00">
        <route edges="7/7to7/8 7/8to6/8 6/8to5/8 5/8to4/8 4/8to3/8 3/8to2/8 2/8to2/7 2/7to2/8"/>
    </vehicle>
    <vehicle id="121" depart="96.80">
        <route edges="7/1to6/1 6/1to5/1 5/1to4/1 4/1to3/1 3/1to2/1 2/1to1/1 1/1to0/1 0/1to0/2 0/2to0/3 0/3to0/4 0/4to0/5 0/5to0/6 0/6to1/6"/>
    </vehicle>
    <vehicle id="122" depart="97.60">
        <route edges="4/9to3/9 3/9to2/9 2/9to3/9"/>
    </vehicle>
    <vehicle id="123" depart="98.40">
        <route edges="3/8to3/9 3/9to3/8 3/8to3/7 3/7to3/6 3/6to3/5 3/5to3/4 3/4to3/3 3/3to3/2 3/2to4/2 4/2to3/2"/>
    </vehicle>
    <vehicle id="124" depart="99.20">
        <route edges="3/3to3/2 3/2to3/3 3/3to3/4 3/4to4/4 4/4to5/4 5/4to6/4 6/4to7/4"/>
    </vehicle>
    <vehicle id="125" depart="100.00">
        <route edges="5/5to5/6 5/6to6/6 6/6to7/6 7/6to7/5"/>
    </vehicle>
    <vehicle id="126" depart="100.80">
        <route edges="1/4to2/4 2/4to2/5 2/5to2/6 2/6to2/7 2/7to2/8 2/8to3/8 3/8to4/8 4/8to4/9"/>
    </vehicle>
    <vehicle id="127" depart="101.60">
        <route edges="6/0to7/0 7/0to7/1 7/1to7/2 7/2to7/3 7/3to7/4 7/4to7/5 7/5to7/6 7/6to7/7 7/7to7/8 7/8to7/9 7/9to7/8"/>
    </vehicle>
    <vehicle id="128" depart="102.40">
        <route edges="6/3to7/3 7/3to7/4 7/4to7/5 7/5to7/6 7/6to7/7 7/7to7/8 7/8to8/8 8/8to9/8 9/8to9/7"/>
    </vehicle>
    <vehicle id="129" depart="103.20">
        <route edges="4/5to4/4 4/4to4/5 4/5to4/6 4/6to4/7 4/7to4/8 4/8to5/8 5/8to6/8 6/8to5/8"/>
    </vehicle>
    <vehicle id="130" depart="104.00">
        <route edges="8/5to8/6 8/6to7/6 7/6to6/6 6/6to5/6 5/6to4/6 4/6to3/6 3/6to2/6 2/6to1/6 1/6to1/7 1/7to1/8 1/8to1/9 1/9to2/9"/>
    </vehicle>
    <vehicle id="131" depart="104.80">
        <route edges="7/7to7/6 7/6to7/7 7/7to7/8 7/8to8/8"/>
    </vehicle>
    <vehicle id="132" depart="105.60">
        <route edges="7/5to7/6 7/6to7/5 7/5to7/4 7/4to7/3 7/3to7/2 7/2to7/1 7/1to8/1 8/1to8/2"/>
    </vehicle>
    <vehicle id="133" depart="106.40">
        <route edges="7/9to8/9 8/9to7/9 7/9to6/9 6/9to5/9 5/9to4/9 4/9to3/9 3/9to2/9 2/9to1/9 1/9to1/8 1/8to1/7 1/7to1/6 1/6to1/5"/>
    </vehicle>
    <vehicle id="134" depart="107.20">
        <route edges="0/4to1/4 1/4to1/5 1/5to1/6 1/6to1/7 1/7to2/7 2/7to3/7 3/7to4/7 4/7to5/7 5/7to5/6"/>
    </vehicle>
    <vehicle id="135" depart="108.00">
        <route edges="7/2to7/3 7/3to6/3 6/3to6/2 6/2to6/1 6/1to6/0 6/0to7/0"/>
    </vehicle>
    <vehicle id="136" depart="108.80">
        <route edges="1/1to1/0 1/0to1/1 1/1to1/2 1/2to1/3 1/3to1/4 1/4to1/5 1/5to1/6 1/6to2/6 2/6to3/6 3/6to4/6 4/6to5/6 5/6to4/6"/>
    </vehicle>
    <vehicle id="137" depart="109.60">
        <route edges="1/7to1/6 1/6to1/5 1/5to1/4 1/4to2/4 2/4to1/4"/>
    </vehicle>
    <vehicle id="138" depart="110.40">
        <route edges="1/5to0/5 0/5to0/6 0/6to0/7 0/7to0/8 0/8to1/8 1/8to1/9 1/9to2/9 2/9to3/9 3/9to4/9 4/9to5/9 5/9to6/9 6/9to7/9 7/9to8/9 8/9to9/9 9/9to8/9"/>
    </vehicle>
    <vehicle id="139" depart="111.20">
        <route edges="6/4to6/3 6/3to5/3 5/3to4/3 4/3to3/3 3/3to2/3 2/3to1/3 1/3to1/4 1/4to1/3"/>
    </vehicle>
    <vehicle id="140" depart="112.00">
        <route edges="6/0to6/1 6/1to5/1 5/1to4/1 4/1to3/1 3/1to2/1 2/1to1/1 1/1to0/1 0/1to0/0"/>
    </vehicle>
    <vehicle id="141" depart="112.80">
        <route edges="3/0to2/0 2/0to2/1 2/1to2/2 2/2to2/3 2/3to2/4 2/4to3/4 3/4to2/4"/>
    </vehicle>
    <vehicle id="142" depart="113.60">
        <route edges="5/0to5/1 5/1to5/2 5/2to5/3 5/3to5/4 5/4to5/5 5/5to5/6 5/6to6/6"/>
    </vehicle>
    <vehicle id="143" depart="114.40">
        <route edges="7/8to7/7 7/7to6/7 6/7to5/7 5/7to4/7 4/7to3/7 3/7to2/7 2/7to2/6 2/6to2/5 2/5to2/4 2/4to2/3 2/3to2/2 2/2to2/1 2/1to2/0 2/0to2/1"/>
    </vehicle>
    <vehicle id="144" depart="115.20">
        <route edges="2/4to2/3 2/3to2/2 2/2to2/1 2/1to3/1 3/1to4/1 4/1to3/1"/>
    </vehicle>
    <vehicle id="145" depart="116.00">
        <route edges="2/1to3/1 3/1to3/2 3/2to3/3 3/3to3/4 3/4to3/5 3/5to3/6 3/6to4/6 4/6to5/6 5/6to6/6 6/6to6/7"/>
    </vehicle>
    <vehicle id="146" depart="116.80">
        <route edges="5/0to6/0 6/0to6/1 6/1to6/2 6/2to6/3 6/3to6/4 6/4to7/4"/>
    </vehicle>
    <vehicle id="147" depart="117.60">
        <route edges="3/3to2/3 2/3to2/4 2/4to3/4 3/4to4/4"/>
    </vehicle>
    <vehicle id="148" depart="118.40">
        <route edges="7/0to8/0 8/0to8/1 8/1to8/2 8/2to8/3 8/3to9/3 9/3to9/2"/>
    </vehicle>
    <vehicle id="149" depart="119.20">
        <route edges="4/6to3/6 3/6to3/5 3/5to4/5 4/5to4/6"/>
    </vehicle>
    <vehicle id="150" depart="120.00">
        <route edges="9/6to9/7 9/7to9/8 9/8to8/8"/>
    </vehicle>
    <vehicle id="151" depart="120.80">
        <route edges="5/4to5/5 5/5to5/4 5/4to5/3 5/3to5/2 5/2to5/1 5/1to6/1 6/1to7/1 7/1to8/1 8/1to9/1 9/1to9/0"/>
    </vehicle>
    <vehicle id="152" depart="121.60">
        <route edges="6/0to7/0 7/0to6/0 6/0to5/0 5/0to4/0 4/0to3/0 3/0to2/0 2/0to2/1 2/1to2/2 2/2to2/3 2/3to2/4 2/4to2/5 2/5to2/6 2/6to1/6"/>
    </vehicle>
    <vehicle id="153" depart="122.40">
        <route edges="7/2to8/2 8/2to7/2 7/2to6/2 6/2to5/2 5/2to4/2 4/2to4/1 4/1to5/1"/>
    </vehicle>
    <vehicle id="154" depart="123.20">
        <route edges="8/6to8/7 8/7to7/7 7/7to6/7 6/7to5/7 5/7to4/7 4/7to3/7 3/7to2/7 2/7to2/6 2/6to2/5 2/5to2/4 2/4to2/3 2/3to2/2 2/2to3/2"/>
    </vehicle>
    <vehicle id="155" depart="124.00">
        <route edges="8/8to8/7 8/7to8/6 8/6to8/5 8/5to8/4 8/4to8/3 8/3to8/2 8/2to8/1 8/1to8/0 8/0to9/0"/>
    </vehicle>
    <vehicle id="156" depart="124.80">
        <route edges="6/0to6/1 6/1to5/1 5/1to5/2 5/2to5/3 5/3to5/4 5/4to5/5 5/5to5/6 5/6to5/7 5/7to5/8"/>
    </vehicle>
    <vehicle id="157" depart="125.60">
        <route edges="5/0to6/0 6/0to5/0 5/0to4/0 4/0to3/0 3/0to2/0 2/0to2/1 2/1to2/2 2/2to2/3 2/3to2/4 2/4to1/4"/>
    </vehicle>
    <vehicle id="158" depart="126.40">
        <route edges="7/1to7/2 7/2to6/2 6/2to5/2 5/2to4/2 4/2to3/2 3/2to2/2 2/2to2/3 2/3to3/3"/>
    </vehicle>
    <vehicle id="159" depart="127.20">
        <route edges="5/2to6/2 6/2to5/2 5/2to4/2 4/2to3/2 3/2to2/2 2/2to1/2 1/2to0/2 0/2to0/3 0/3to0/4 0/4to0/5 0/5to0/6 0/6to0/7 0/7to0/6"/>
    </vehicle>
    <vehicle id="160" depart="128.00">
        <route edges="7/8to7/9 7/9to6/9 6/9to5/9 5/9to4/9 4/9to3/9 3/9to2/9 2/9to1/9 1/9to1/8 1/8to1/7 1/7to1/6 1/6to1/5"/>
    </vehicle>
    <vehicle id="161" depart="128.80">
        <route edges="9/9to8/9 8/9to7/9 7/9to6/9 6/9to5/9 5/9to4/9 4/9to3/9 3/9to2/9 2/9to2/8 2/8to2/7 2/7to2/6 2/6to2/5 2/5to2/4 2/4to2/5"/>
    </vehicle>
    <vehicle id="162" depart="129.60">
        <route edges="2/6to1/6 1/6to1/5 1/5to2/5 2/5to2/4"/>
    </vehicle>
    <vehicle id="163" depart="130.40">
        <route edges="9/7to9/8 9/8to8/8 8/8to7/8 7/8to6/8 6/8to5/8 5/8to5/7 5/7to5/6 5/6to5/5 5/5to4/5"/>
    </vehicle>
    <vehicle id="164" depart="131.20">
        <route edges="3/7to3/6 3/6to3/5 3/5to4/5 4/5to5/5 5/5to6/5 6/5to7/5 7/5to8/5 8/5to9/5"/>
    </vehicle>
    <vehicle id="165" depart="132.00">
        <route edges="4/5to5/5 5/5to5/4 5/4to5/3 5/3to6/3 6/3to7/3 7/3to8/3 8/3to9/3 9/3to8/3"/>
    </vehicle>
    <vehicle id="166" depart="132.80">
        <route edges="8/7to8/8 8/8to7/8 7/8to6/8 6/8to5/8 5/8to5/7 5/7to5/6 5/6to5/5 5/5to6/5"/>
    </vehicle>
    <vehicle id="167" depart="133.60">
        <route edges="8/4to9/4 9/4to8/4 8/4to7/4 7/4to6/4 6/4to5/4 5/4to4/4 4/4to3/4 3/4to3/5 3/5to3/6 3/6to4/6"/>
    </vehicle>
    <vehicle id="168" depart="134.40">
        <route edges="1/6to2/6 2/6to1/6 1/6to0/6 0/6to0/5 0/5to0/4 0/4to0/3 0/3to0/2 0/2to0/1 0/1to0/0 0/0to1/0"/>
    </vehicle>
    <vehicle id="169" depart="135.20">
        <route edges="3/3to3/4 3/4to3/3 3/3to3/2 3/2to4/2 4/2to5/2 5/2to6/2 6/2to7/2 7/2to7/3"/>
    </vehicle>
    <vehicle id="170" depart="136.00">
        <route edges="2/9to3/9 3/9to3/8 3/8to3/7 3/7to3/6 3/6to3/5 3/5to3/4 3/4to3/3 3/3to3/2 3/2to3/1 3/1to4/1"/>
    </vehicle>
    <vehicle id="171" depart="136.80">
        <route edges="9/6to8/6 8/6to8/7 8/7to8/8 8/8to8/9 8/9to9/9"/>
    </vehicle>
    <vehicle id="172" depart="137.60">
        <route edges="4/5to4/4 4/4to4/5 4/5to4/6 4/6to4/7 4/7to4/8 4/8to5/8 5/8to6/8 6/8to6/7"/>
    </vehicle>
    <vehicle id="173" depart="138.40">
        <route edges="9/8to9/9 9/9to8/9 8/9to7/9 7/9to7/8 7/8to8/8"/>
    </vehicle>
    <vehicle id="174" depart="139.20">
        <route edges="4/4to4/5 4/5to4/4 4/4to4/3 4/3to5/3"/>
    </vehicle>
    <vehicle id="175" depart="140.00">
        <route edges="9/2to9/1 9/1to8/1 8/1to7/1 7/1to6/1 6/1to5/1 5/1to4/1 4/1to3/1 3/1to3/2 3/2to3/3 3/3to3/4 3/4to3/5 3/5to3/6 3/6to3/7 3/7to3/8 3/8to4/8"/>
    </vehicle>
    <vehicle id="176" depart="140.80">
        <route edges="3/1to3/0 3/0to3/1 3/1to3/2"/>
    </vehicle>
    <vehicle id="177" depart="141.60">
        <route edges="3/6to3/5 3/5to2/5 2/5to2/6 2/6to2/7 2/7to1/7"/>
    </vehicle>
    <vehicle id="178" depart="142.40">
        <route edges="3/2to3/1 3/1to3/2 3/2to3/3 3/3to3/4 3/4to3/5 3/5to3/6 3/6to3/7 3/7to3/8 3/8to4/8 4/8to5/8 5/8to6/8 6/8to7/8 7/8to8/8 8/8to7/8"/>
    </vehicle>
    <vehicle id="179" depart="143.20">
        <route edges="1/8to2/8 2/8to1/8 1/8to1/7 1/7to1/6 1/6to1/5 1/5to1/4 1/4to1/3 1/3to1/2 1/2to1/3"/>
    </vehicle>
    <vehicle id="180" depart="144.00">
        <route edges="7/4to8/4 8/4to7/4 7/4to6/4 6/4to5/4 5/4to5/3 5/3to5/2 5/2to5/1 5/1to6/1"/>
    </vehicle>
    <vehicle id="181" depart="144.80">
        <route edges="3/3to3/4 3/4to3/5 3/5to3/6 3/6to4/6 4/6to5/6 5/6to6/6 6/6to7/6 7/6to6/6"/>
    </vehicle>
    <vehicle id="182" depart="145.60">
        <route edges="8/4to8/3 8/3to8/4 8/4to8/5 8/5to8/6 8/6to8/7 8/7to8/8 8/8to8/9"/>
    </vehicle>
    <vehicle id="183" depart="146.40">
        <route edges="1/5to1/4 1/4to1/3 1/3to1/2 1/2to1/1 1/1to1/0 1/0to2/0 2/0to3/0 3/0to4/0 4/0to4/1"/>
    </vehicle>
    <vehicle id="184" depart="147.20">
        <route edges="7/1to6/1 6/1to5/1 5/1to5/2 5/2to5/3 5/3to5/4 5/4to5/5 5/5to5/6 5/6to5/7 5/7to5/8"/>
    </vehicle>
    <vehicle id="185" depart="148.00">
        <route edges="9/4to9/3 9/3to9/2 9/2to9/1"/>
    </vehicle>
    <vehicle id="186" depart="148.80">
        <route edges="3/6to3/5 3/5to3/4 3/4to3/3 3/3to4/3 4/3to5/3 5/3to6/3 6/3to7/3 7/3to8/3 8/3to8/4"/>
    </vehicle>
    <vehicle id="187" depart="149.60">
        <route edges="1/7to1/8 1/8to2/8 2/8to3/8 3/8to4/8 4/8to5/8 5/8to6/8 6/8to7/8 7/8to8/8 8/8to7/8"/>
    </vehicle>
    <vehicle id="188" depart="150.40">
        <route edges="5/8to4/8 4/8to3/8 3/8to2/8 2/8to1/8 1/8to1/7 1/7to1/6 1/6to1/5 1/5to1/4 1/4to1/3 1/3to1/2 1/2to1/1 1/1to1/0 1/0to1/1"/>
    </vehicle>
    <vehicle id="189" depart="151.20">
        <route edges="2/9to1/9 1/9to1/8 1/8to1/7 1/7to1/6 1/6to1/5 1/5to2/5 2/5to1/5"/>
    </vehicle>