<?xml version="1.0" encoding="UTF-8"?>

<!-- generated on 02/01/15 21:33:02 by SUMO netgenerate Version 0.22.0
<?xml version="1.0" encoding="UTF-8"?>

<configuration xmlns:xsi="http://www.w3.org/2001/XMLSchema-instance" xsi:noNamespaceSchemaLocation="http://sumo.dlr.de/xsd/netgenerateConfiguration.xsd">

    <grid_network>
        <grid value="true"/>
        <grid.number value="10"/>
        <grid.length value="120"/>
    </grid_network>

    <output>
        <output-file value="grids.net.xml"/>
    </output>

    <building_defaults>
        <default.lanenumber value="2"/>
        <default-junction-type value="traffic_light"/>
    </building_defaults>

</configuration>
-->

<net version="0.13" xmlns:xsi="http://www.w3.org/2001/XMLSchema-instance" xsi:noNamespaceSchemaLocation="http://sumo.dlr.de/xsd/net_file.xsd">

    <location netOffset="0.00,0.00" convBoundary="0.00,0.00,1080.00,1080.00" origBoundary="0.00,0.00,1080.00,1080.00" projParameter="!"/>

    <edge id=":0/0_0" function="internal">
        <lane id=":0/0_0_0" index="0" speed="13.90" length="15.89" shape="-4.95,6.55 -4.23,1.52 -2.08,-2.08 1.52,-4.23 6.55,-4.95"/>
        <lane id=":0/0_0_1" index="1" speed="13.90" length="15.89" shape="-1.65,6.55 -1.14,2.96 0.40,0.40 2.96,-1.14 6.55,-1.65"/>
    </edge>
    <edge id=":0/0_2" function="internal">
        <lane id=":0/0_2_0" index="0" speed="13.90" length="2.41" shape="-1.65,6.55 -0.83,5.31 -0.00,4.90"/>
    </edge>
    <edge id=":0/0_6" function="internal">
        <lane id=":0/0_6_0" index="0" speed="13.90" length="2.41" shape="-0.00,4.90 0.82,5.31 1.65,6.55"/>
    </edge>
    <edge id=":0/0_3" function="internal">
        <lane id=":0/0_3_0" index="0" speed="13.90" length="5.24" shape="6.55,4.95 5.85,5.05 5.35,5.35 5.05,5.85 4.95,6.55"/>
        <lane id=":0/0_3_1" index="1" speed="13.90" length="5.24" shape="6.55,1.65 4.41,1.96 2.88,2.87 1.96,4.41 1.65,6.55"/>
    </edge>
    <edge id=":0/0_5" function="internal">
        <lane id=":0/0_5_0" index="0" speed="13.90" length="2.41" shape="6.55,1.65 5.31,0.83 4.90,0.00"/>
    </edge>
    <edge id=":0/0_7" function="internal">
        <lane id=":0/0_7_0" index="0" speed="13.90" length="2.41" shape="4.90,0.00 5.31,-0.82 6.55,-1.65"/>
    </edge>
    <edge id=":0/1_0" function="internal">
        <lane id=":0/1_0_0" index="0" speed="13.90" length="16.10" shape="-4.95,128.05 -4.95,123.27 -4.95,120.00 -4.95,116.73 -4.95,111.95"/>
        <lane id=":0/1_0_1" index="1" speed="13.90" length="16.10" shape="-1.65,128.05 -1.65,123.27 -1.65,120.00 -1.65,116.73 -1.65,111.95"/>
    </edge>
    <edge id=":0/1_2" function="internal">
        <lane id=":0/1_2_0" index="0" speed="13.90" length="8.84" shape="-1.65,128.05 -1.04,123.81 0.77,120.78 1.65,120.25"/>
    </edge>
    <edge id=":0/1_3" function="internal">
        <lane id=":0/1_3_0" index="0" speed="13.90" length="2.41" shape="-1.65,128.05 -0.83,126.81 -0.00,126.40"/>
    </edge>
    <edge id=":0/1_11" function="internal">
        <lane id=":0/1_11_0" index="0" speed="13.90" length="6.80" shape="1.65,120.25 3.81,118.96 8.05,118.35"/>
    </edge>
    <edge id=":0/1_12" function="internal">
        <lane id=":0/1_12_0" index="0" speed="13.90" length="2.41" shape="-0.00,126.40 0.82,126.81 1.65,128.05"/>
    </edge>
    <edge id=":0/1_4" function="internal">
        <lane id=":0/1_4_0" index="0" speed="13.90" length="5.00" shape="8.05,124.95 6.69,125.14 5.73,125.73 5.14,126.69 4.95,128.05"/>
    </edge>
    <edge id=":0/1_5" function="internal">
        <lane id=":0/1_5_0" index="0" speed="13.90" length="3.13" shape="8.05,121.65 4.95,121.21"/>
    </edge>
    <edge id=":0/1_6" function="internal">
        <lane id=":0/1_6_0" index="0" speed="13.90" length="2.41" shape="8.05,121.65 6.81,120.83 6.40,120.00"/>
    </edge>
    <edge id=":0/1_13" function="internal">
        <lane id=":0/1_13_0" index="0" speed="13.90" length="12.51" shape="4.95,121.21 3.81,121.04 0.77,119.23 -1.04,116.19 -1.65,111.95"/>
    </edge>
    <edge id=":0/1_14" function="internal">
        <lane id=":0/1_14_0" index="0" speed="13.90" length="2.41" shape="6.40,120.00 6.81,119.17 8.05,118.35"/>
    </edge>
    <edge id=":0/1_7" function="internal">
        <lane id=":0/1_7_0" index="0" speed="13.90" length="5.00" shape="4.95,111.95 5.14,113.31 5.72,114.28 6.69,114.86 8.05,115.05"/>
    </edge>
    <edge id=":0/1_8" function="internal">
        <lane id=":0/1_8_0" index="0" speed="13.90" length="16.10" shape="4.95,111.95 4.95,116.73 4.95,120.00 4.95,123.27 4.95,128.05"/>
        <lane id=":0/1_8_1" index="1" speed="13.90" length="16.10" shape="1.65,111.95 1.65,116.73 1.65,120.00 1.65,123.27 1.65,128.05"/>
    </edge>
    <edge id=":0/1_10" function="internal">
        <lane id=":0/1_10_0" index="0" speed="13.90" length="2.41" shape="1.65,111.95 0.83,113.19 0.00,113.60"/>
    </edge>
    <edge id=":0/1_15" function="internal">
        <lane id=":0/1_15_0" index="0" speed="13.90" length="2.41" shape="0.00,113.60 -0.82,113.19 -1.65,111.95"/>
    </edge>
    <edge id=":0/2_0" function="internal">
        <lane id=":0/2_0_0" index="0" speed="13.90" length="16.10" shape="-4.95,248.05 -4.95,243.27 -4.95,240.00 -4.95,236.73 -4.95,231.95"/>
        <lane id=":0/2_0_1" index="1" speed="13.90" length="16.10" shape="-1.65,248.05 -1.65,243.27 -1.65,240.00 -1.65,236.73 -1.65,231.95"/>
    </edge>
    <edge id=":0/2_2" function="internal">
        <lane id=":0/2_2_0" index="0" speed="13.90" length="8.84" shape="-1.65,248.05 -1.04,243.81 0.77,240.77 1.65,240.25"/>
    </edge>
    <edge id=":0/2_3" function="internal">
        <lane id=":0/2_3_0" index="0" speed="13.90" length="2.41" shape="-1.65,248.05 -0.83,246.81 -0.00,246.40"/>
    </edge>
    <edge id=":0/2_11" function="internal">
        <lane id=":0/2_11_0" index="0" speed="13.90" length="6.80" shape="1.65,240.25 3.81,238.96 8.05,238.35"/>
    </edge>
    <edge id=":0/2_12" function="internal">
        <lane id=":0/2_12_0" index="0" speed="13.90" length="2.41" shape="-0.00,246.40 0.82,246.81 1.65,248.05"/>
    </edge>
    <edge id=":0/2_4" function="internal">
        <lane id=":0/2_4_0" index="0" speed="13.90" length="5.00" shape="8.05,244.95 6.69,245.14 5.73,245.72 5.14,246.69 4.95,248.05"/>
    </edge>
    <edge id=":0/2_5" function="internal">
        <lane id=":0/2_5_0" index="0" speed="13.90" length="3.13" shape="8.05,241.65 4.95,241.21"/>
    </edge>
    <edge id=":0/2_6" function="internal">
        <lane id=":0/2_6_0" index="0" speed="13.90" length="2.41" shape="8.05,241.65 6.81,240.82 6.40,240.00"/>
    </edge>
    <edge id=":0/2_13" function="internal">
        <lane id=":0/2_13_0" index="0" speed="13.90" length="12.51" shape="4.95,241.21 3.81,241.04 0.77,239.23 -1.04,236.19 -1.65,231.95"/>
    </edge>
    <edge id=":0/2_14" function="internal">
        <lane id=":0/2_14_0" index="0" speed="13.90" length="2.41" shape="6.40,240.00 6.81,239.18 8.05,238.35"/>
    </edge>
    <edge id=":0/2_7" function="internal">
        <lane id=":0/2_7_0" index="0" speed="13.90" length="5.00" shape="4.95,231.95 5.14,233.31 5.72,234.28 6.69,234.86 8.05,235.05"/>
    </edge>
    <edge id=":0/2_8" function="internal">
        <lane id=":0/2_8_0" index="0" speed="13.90" length="16.10" shape="4.95,231.95 4.95,236.73 4.95,240.00 4.95,243.27 4.95,248.05"/>
        <lane id=":0/2_8_1" index="1" speed="13.90" length="16.10" shape="1.65,231.95 1.65,236.73 1.65,240.00 1.65,243.27 1.65,248.05"/>
    </edge>
    <edge id=":0/2_10" function="internal">
        <lane id=":0/2_10_0" index="0" speed="13.90" length="2.41" shape="1.65,231.95 0.83,233.19 0.00,233.60"/>
    </edge>
    <edge id=":0/2_15" function="internal">
        <lane id=":0/2_15_0" index="0" speed="13.90" length="2.41" shape="0.00,233.60 -0.82,233.19 -1.65,231.95"/>
    </edge>
    <edge id=":0/3_0" function="internal">
        <lane id=":0/3_0_0" index="0" speed="13.90" length="16.10" shape="-4.95,368.05 -4.95,363.27 -4.95,360.00 -4.95,356.73 -4.95,351.95"/>
        <lane id=":0/3_0_1" index="1" speed="13.90" length="16.10" shape="-1.65,368.05 -1.65,363.27 -1.65,360.00 -1.65,356.73 -1.65,351.95"/>
    </edge>
    <edge id=":0/3_2" function="internal">
        <lane id=":0/3_2_0" index="0" speed="13.90" length="8.84" shape="-1.65,368.05 -1.04,363.81 0.77,360.77 1.65,360.25"/>
    </edge>
    <edge id=":0/3_3" function="internal">
        <lane id=":0/3_3_0" index="0" speed="13.90" length="2.41" shape="-1.65,368.05 -0.83,366.81 -0.00,366.40"/>
    </edge>
    <edge id=":0/3_11" function="internal">
        <lane id=":0/3_11_0" index="0" speed="13.90" length="6.80" shape="1.65,360.25 3.81,358.96 8.05,358.35"/>
    </edge>
    <edge id=":0/3_12" function="internal">
        <lane id=":0/3_12_0" index="0" speed="13.90" length="2.41" shape="-0.00,366.40 0.82,366.81 1.65,368.05"/>
    </edge>
    <edge id=":0/3_4" function="internal">
        <lane id=":0/3_4_0" index="0" speed="13.90" length="5.00" shape="8.05,364.95 6.69,365.14 5.73,365.72 5.14,366.69 4.95,368.05"/>
    </edge>
    <edge id=":0/3_5" function="internal">
        <lane id=":0/3_5_0" index="0" speed="13.90" length="3.13" shape="8.05,361.65 4.95,361.21"/>
    </edge>
    <edge id=":0/3_6" function="internal">
        <lane id=":0/3_6_0" index="0" speed="13.90" length="2.41" shape="8.05,361.65 6.81,360.83 6.40,360.00"/>
    </edge>
    <edge id=":0/3_13" function="internal">
        <lane id=":0/3_13_0" index="0" speed="13.90" length="12.51" shape="4.95,361.21 3.81,361.04 0.77,359.22 -1.04,356.19 -1.65,351.95"/>
    </edge>
    <edge id=":0/3_14" function="internal">
        <lane id=":0/3_14_0" index="0" speed="13.90" length="2.41" shape="6.40,360.00 6.81,359.18 8.05,358.35"/>
    </edge>
    <edge id=":0/3_7" function="internal">
        <lane id=":0/3_7_0" index="0" speed="13.90" length="5.00" shape="4.95,351.95 5.14,353.31 5.72,354.27 6.69,354.86 8.05,355.05"/>
    </edge>
    <edge id=":0/3_8" function="internal">
        <lane id=":0/3_8_0" index="0" speed="13.90" length="16.10" shape="4.95,351.95 4.95,356.73 4.95,360.00 4.95,363.27 4.95,368.05"/>
        <lane id=":0/3_8_1" index="1" speed="13.90" length="16.10" shape="1.65,351.95 1.65,356.73 1.65,360.00 1.65,363.27 1.65,368.05"/>
    </edge>
    <edge id=":0/3_10" function="internal">
        <lane id=":0/3_10_0" index="0" speed="13.90" length="2.41" shape="1.65,351.95 0.83,353.19 0.00,353.60"/>
    </edge>
    <edge id=":0/3_15" function="internal">
        <lane id=":0/3_15_0" index="0" speed="13.90" length="2.41" shape="0.00,353.60 -0.82,353.19 -1.65,351.95"/>
    </edge>
    <edge id=":0/4_0" function="internal">
        <lane id=":0/4_0_0" index="0" speed="13.90" length="16.10" shape="-4.95,488.05 -4.95,483.27 -4.95,480.00 -4.95,476.73 -4.95,471.95"/>
        <lane id=":0/4_0_1" index="1" speed="13.90" length="16.10" shape="-1.65,488.05 -1.65,483.27 -1.65,480.00 -1.65,476.73 -1.65,471.95"/>
    </edge>
    <edge id=":0/4_2" function="internal">
        <lane id=":0/4_2_0" index="0" speed="13.90" length="8.84" shape="-1.65,488.05 -1.04,483.81 0.77,480.77 1.65,480.25"/>
    </edge>
    <edge id=":0/4_3" function="internal">
        <lane id=":0/4_3_0" index="0" speed="13.90" length="2.41" shape="-1.65,488.05 -0.83,486.81 -0.00,486.40"/>
    </edge>
    <edge id=":0/4_11" function="internal">
        <lane id=":0/4_11_0" index="0" speed="13.90" length="6.80" shape="1.65,480.25 3.81,478.96 8.05,478.35"/>
    </edge>
    <edge id=":0/4_12" function="internal">
        <lane id=":0/4_12_0" index="0" speed="13.90" length="2.41" shape="-0.00,486.40 0.82,486.81 1.65,488.05"/>
    </edge>
    <edge id=":0/4_4" function="internal">
        <lane id=":0/4_4_0" index="0" speed="13.90" length="5.00" shape="8.05,484.95 6.69,485.14 5.73,485.72 5.14,486.69 4.95,488.05"/>
    </edge>
    <edge id=":0/4_5" function="internal">
        <lane id=":0/4_5_0" index="0" speed="13.90" length="3.13" shape="8.05,481.65 4.95,481.21"/>
    </edge>
    <edge id=":0/4_6" function="internal">
        <lane id=":0/4_6_0" index="0" speed="13.90" length="2.41" shape="8.05,481.65 6.81,480.82 6.40,480.00"/>
    </edge>
    <edge id=":0/4_13" function="internal">
        <lane id=":0/4_13_0" index="0" speed="13.90" length="12.51" shape="4.95,481.21 3.81,481.04 0.77,479.22 -1.04,476.19 -1.65,471.95"/>
    </edge>
    <edge id=":0/4_14" function="internal">
        <lane id=":0/4_14_0" index="0" speed="13.90" length="2.41" shape="6.40,480.00 6.81,479.18 8.05,478.35"/>
    </edge>
    <edge id=":0/4_7" function="internal">
        <lane id=":0/4_7_0" index="0" speed="13.90" length="5.00" shape="4.95,471.95 5.14,473.31 5.72,474.27 6.69,474.86 8.05,475.05"/>
    </edge>
    <edge id=":0/4_8" function="internal">
        <lane id=":0/4_8_0" index="0" speed="13.90" length="16.10" shape="4.95,471.95 4.95,476.73 4.95,480.00 4.95,483.27 4.95,488.05"/>
        <lane id=":0/4_8_1" index="1" speed="13.90" length="16.10" shape="1.65,471.95 1.65,476.73 1.65,480.00 1.65,483.27 1.65,488.05"/>
    </edge>
    <edge id=":0/4_10" function="internal">
        <lane id=":0/4_10_0" index="0" speed="13.90" length="2.41" shape="1.65,471.95 0.83,473.19 0.00,473.60"/>
    </edge>
    <edge id=":0/4_15" function="internal">
        <lane id=":0/4_15_0" index="0" speed="13.90" length="2.41" shape="0.00,473.60 -0.82,473.19 -1.65,471.95"/>
    </edge>
    <edge id=":0/5_0" function="internal">
        <lane id=":0/5_0_0" index="0" speed="13.90" length="16.10" shape="-4.95,608.05 -4.95,603.27 -4.95,600.00 -4.95,596.73 -4.95,591.95"/>
        <lane id=":0/5_0_1" index="1" speed="13.90" length="16.10" shape="-1.65,608.05 -1.65,603.27 -1.65,600.00 -1.65,596.73 -1.65,591.95"/>
    </edge>
    <edge id=":0/5_2" function="internal">
        <lane id=":0/5_2_0" index="0" speed="13.90" length="8.84" shape="-1.65,608.05 -1.04,603.81 0.77,600.77 1.65,600.25"/>
    </edge>
    <edge id=":0/5_3" function="internal">
        <lane id=":0/5_3_0" index="0" speed="13.90" length="2.41" shape="-1.65,608.05 -0.83,606.81 -0.00,606.40"/>
    </edge>
    <edge id=":0/5_11" function="internal">
        <lane id=":0/5_11_0" index="0" speed="13.90" length="6.80" shape="1.65,600.25 3.81,598.96 8.05,598.35"/>
    </edge>
    <edge id=":0/5_12" function="internal">
        <lane id=":0/5_12_0" index="0" speed="13.90" length="2.41" shape="-0.00,606.40 0.82,606.81 1.65,608.05"/>
    </edge>
    <edge id=":0/5_4" function="internal">
        <lane id=":0/5_4_0" index="0" speed="13.90" length="5.00" shape="8.05,604.95 6.69,605.14 5.73,605.73 5.14,606.69 4.95,608.05"/>
    </edge>
    <edge id=":0/5_5" function="internal">
        <lane id=":0/5_5_0" index="0" speed="13.90" length="3.13" shape="8.05,601.65 4.95,601.21"/>
    </edge>
    <edge id=":0/5_6" function="internal">
        <lane id=":0/5_6_0" index="0" speed="13.90" length="2.41" shape="8.05,601.65 6.81,600.82 6.40,600.00"/>
    </edge>
    <edge id=":0/5_13" function="internal">
        <lane id=":0/5_13_0" index="0" speed="13.90" length="12.51" shape="4.95,601.21 3.81,601.04 0.77,599.22 -1.04,596.19 -1.65,591.95"/>
    </edge>
    <edge id=":0/5_14" function="internal">
        <lane id=":0/5_14_0" index="0" speed="13.90" length="2.41" shape="6.40,600.00 6.81,599.17 8.05,598.35"/>
    </edge>
    <edge id=":0/5_7" function="internal">
        <lane id=":0/5_7_0" index="0" speed="13.90" length="5.00" shape="4.95,591.95 5.14,593.31 5.72,594.27 6.69,594.86 8.05,595.05"/>
    </edge>
    <edge id=":0/5_8" function="internal">
        <lane id=":0/5_8_0" index="0" speed="13.90" length="16.10" shape="4.95,591.95 4.95,596.73 4.95,600.00 4.95,603.27 4.95,608.05"/>
        <lane id=":0/5_8_1" index="1" speed="13.90" length="16.10" shape="1.65,591.95 1.65,596.73 1.65,600.00 1.65,603.27 1.65,608.05"/>
    </edge>
    <edge id=":0/5_10" function="internal">
        <lane id=":0/5_10_0" index="0" speed="13.90" length="2.41" shape="1.65,591.95 0.83,593.19 0.00,593.60"/>
    </edge>
    <edge id=":0/5_15" function="internal">
        <lane id=":0/5_15_0" index="0" speed="13.90" length="2.41" shape="0.00,593.60 -0.82,593.19 -1.65,591.95"/>
    </edge>
    <edge id=":0/6_0" function="internal">
        <lane id=":0/6_0_0" index="0" speed="13.90" length="16.10" shape="-4.95,728.05 -4.95,723.27 -4.95,720.00 -4.95,716.73 -4.95,711.95"/>
        <lane id=":0/6_0_1" index="1" speed="13.90" length="16.10" shape="-1.65,728.05 -1.65,723.27 -1.65,720.00 -1.65,716.73 -1.65,711.95"/>
    </edge>
    <edge id=":0/6_2" function="internal">
        <lane id=":0/6_2_0" index="0" speed="13.90" length="8.84" shape="-1.65,728.05 -1.04,723.81 0.77,720.77 1.65,720.25"/>
    </edge>
    <edge id=":0/6_3" function="internal">
        <lane id=":0/6_3_0" index="0" speed="13.90" length="2.41" shape="-1.65,728.05 -0.83,726.81 -0.00,726.40"/>
    </edge>
    <edge id=":0/6_11" function="internal">
        <lane id=":0/6_11_0" index="0" speed="13.90" length="6.80" shape="1.65,720.25 3.81,718.96 8.05,718.35"/>
    </edge>
    <edge id=":0/6_12" function="internal">
        <lane id=":0/6_12_0" index="0" speed="13.90" length="2.41" shape="-0.00,726.40 0.82,726.81 1.65,728.05"/>
    </edge>
    <edge id=":0/6_4" function="internal">
        <lane id=":0/6_4_0" index="0" speed="13.90" length="5.00" shape="8.05,724.95 6.69,725.14 5.73,725.73 5.14,726.69 4.95,728.05"/>
    </edge>
    <edge id=":0/6_5" function="internal">
        <lane id=":0/6_5_0" index="0" speed="13.90" length="3.13" shape="8.05,721.65 4.95,721.21"/>
    </edge>
    <edge id=":0/6_6" function="internal">
        <lane id=":0/6_6_0" index="0" speed="13.90" length="2.41" shape="8.05,721.65 6.81,720.82 6.40,720.00"/>
    </edge>
    <edge id=":0/6_13" function="internal">
        <lane id=":0/6_13_0" index="0" speed="13.90" length="12.51" shape="4.95,721.21 3.81,721.04 0.77,719.22 -1.04,716.19 -1.65,711.95"/>
    </edge>
    <edge id=":0/6_14" function="internal">
        <lane id=":0/6_14_0" index="0" speed="13.90" length="2.41" shape="6.40,720.00 6.81,719.17 8.05,718.35"/>
    </edge>
    <edge id=":0/6_7" function="internal">
        <lane id=":0/6_7_0" index="0" speed="13.90" length="5.00" shape="4.95,711.95 5.14,713.31 5.72,714.27 6.69,714.86 8.05,715.05"/>
    </edge>
    <edge id=":0/6_8" function="internal">
        <lane id=":0/6_8_0" index="0" speed="13.90" length="16.10" shape="4.95,711.95 4.95,716.73 4.95,720.00 4.95,723.27 4.95,728.05"/>
        <lane id=":0/6_8_1" index="1" speed="13.90" length="16.10" shape="1.65,711.95 1.65,716.73 1.65,720.00 1.65,723.27 1.65,728.05"/>
    </edge>
    <edge id=":0/6_10" function="internal">
        <lane id=":0/6_10_0" index="0" speed="13.90" length="2.41" shape="1.65,711.95 0.83,713.19 0.00,713.60"/>
    </edge>
    <edge id=":0/6_15" function="internal">
        <lane id=":0/6_15_0" index="0" speed="13.90" length="2.41" shape="0.00,713.60 -0.82,713.19 -1.65,711.95"/>
    </edge>
    <edge id=":0/7_0" function="internal">
        <lane id=":0/7_0_0" index="0" speed="13.90" length="16.10" shape="-4.95,848.05 -4.95,843.27 -4.95,840.00 -4.95,836.73 -4.95,831.95"/>
        <lane id=":0/7_0_1" index="1" speed="13.90" length="16.10" shape="-1.65,848.05 -1.65,843.27 -1.65,840.00 -1.65,836.73 -1.65,831.95"/>
    </edge>
    <edge id=":0/7_2" function="internal">
        <lane id=":0/7_2_0" index="0" speed="13.90" length="8.84" shape="-1.65,848.05 -1.04,843.81 0.77,840.77 1.65,840.25"/>
    </edge>
    <edge id=":0/7_3" function="internal">
        <lane id=":0/7_3_0" index="0" speed="13.90" length="2.41" shape="-1.65,848.05 -0.83,846.81 -0.00,846.40"/>
    </edge>
    <edge id=":0/7_11" function="internal">
        <lane id=":0/7_11_0" index="0" speed="13.90" length="6.80" shape="1.65,840.25 3.81,838.96 8.05,838.35"/>
    </edge>
    <edge id=":0/7_12" function="internal">
        <lane id=":0/7_12_0" index="0" speed="13.90" length="2.41" shape="-0.00,846.40 0.82,846.81 1.65,848.05"/>
    </edge>
    <edge id=":0/7_4" function="internal">
        <lane id=":0/7_4_0" index="0" speed="13.90" length="5.00" shape="8.05,844.95 6.69,845.14 5.73,845.73 5.14,846.69 4.95,848.05"/>
    </edge>
    <edge id=":0/7_5" function="internal">
        <lane id=":0/7_5_0" index="0" speed="13.90" length="3.13" shape="8.05,841.65 4.95,841.21"/>
    </edge>
    <edge id=":0/7_6" function="internal">
        <lane id=":0/7_6_0" index="0" speed="13.90" length="2.41" shape="8.05,841.65 6.81,840.82 6.40,840.00"/>
    </edge>
    <edge id=":0/7_13" function="internal">
        <lane id=":0/7_13_0" index="0" speed="13.90" length="12.51" shape="4.95,841.21 3.81,841.04 0.77,839.22 -1.04,836.19 -1.65,831.95"/>
    </edge>
    <edge id=":0/7_14" function="internal">
        <lane id=":0/7_14_0" index="0" speed="13.90" length="2.41" shape="6.40,840.00 6.81,839.17 8.05,838.35"/>
    </edge>
    <edge id=":0/7_7" function="internal">
        <lane id=":0/7_7_0" index="0" speed="13.90" length="5.00" shape="4.95,831.95 5.14,833.31 5.72,834.27 6.69,834.86 8.05,835.05"/>
    </edge>
    <edge id=":0/7_8" function="internal">
        <lane id=":0/7_8_0" index="0" speed="13.90" length="16.10" shape="4.95,831.95 4.95,836.73 4.95,840.00 4.95,843.27 4.95,848.05"/>
        <lane id=":0/7_8_1" index="1" speed="13.90" length="16.10" shape="1.65,831.95 1.65,836.73 1.65,840.00 1.65,843.27 1.65,848.05"/>
    </edge>
    <edge id=":0/7_10" function="internal">
        <lane id=":0/7_10_0" index="0" speed="13.90" length="2.41" shape="1.65,831.95 0.83,833.19 0.00,833.60"/>
    </edge>
    <edge id=":0/7_15" function="internal">
        <lane id=":0/7_15_0" index="0" speed="13.90" length="2.41" shape="0.00,833.60 -0.82,833.19 -1.65,831.95"/>
    </edge>
    <edge id=":0/8_0" function="internal">
        <lane id=":0/8_0_0" index="0" speed="13.90" length="16.10" shape="-4.95,968.05 -4.95,963.27 -4.95,960.00 -4.95,956.73 -4.95,951.95"/>
        <lane id=":0/8_0_1" index="1" speed="13.90" length="16.10" shape="-1.65,968.05 -1.65,963.27 -1.65,960.00 -1.65,956.73 -1.65,951.95"/>
    </edge>
    <edge id=":0/8_2" function="internal">
        <lane id=":0/8_2_0" index="0" speed="13.90" length="8.84" shape="-1.65,968.05 -1.04,963.81 0.77,960.77 1.65,960.25"/>
    </edge>
    <edge id=":0/8_3" function="internal">
        <lane id=":0/8_3_0" index="0" speed="13.90" length="2.41" shape="-1.65,968.05 -0.83,966.81 -0.00,966.40"/>
    </edge>
    <edge id=":0/8_11" function="internal">
        <lane id=":0/8_11_0" index="0" speed="13.90" length="6.80" shape="1.65,960.25 3.81,958.96 8.05,958.35"/>
    </edge>
    <edge id=":0/8_12" function="internal">
        <lane id=":0/8_12_0" index="0" speed="13.90" length="2.41" shape="-0.00,966.40 0.82,966.81 1.65,968.05"/>
    </edge>
    <edge id=":0/8_4" function="internal">
        <lane id=":0/8_4_0" index="0" speed="13.90" length="5.00" shape="8.05,964.95 6.69,965.14 5.73,965.73 5.14,966.69 4.95,968.05"/>
    </edge>
    <edge id=":0/8_5" function="internal">
        <lane id=":0/8_5_0" index="0" speed="13.90" length="3.13" shape="8.05,961.65 4.95,961.21"/>
    </edge>
    <edge id=":0/8_6" function="internal">
        <lane id=":0/8_6_0" index="0" speed="13.90" length="2.41" shape="8.05,961.65 6.81,960.83 6.40,960.00"/>
    </edge>
    <edge id=":0/8_13" function="internal">
        <lane id=":0/8_13_0" index="0" speed="13.90" length="12.51" shape="4.95,961.21 3.81,961.04 0.77,959.22 -1.04,956.19 -1.65,951.95"/>
    </edge>
    <edge id=":0/8_14" function="internal">
        <lane id=":0/8_14_0" index="0" speed="13.90" length="2.41" shape="6.40,960.00 6.81,959.17 8.05,958.35"/>
    </edge>
    <edge id=":0/8_7" function="internal">
        <lane id=":0/8_7_0" index="0" speed="13.90" length="5.00" shape="4.95,951.95 5.14,953.31 5.72,954.27 6.69,954.86 8.05,955.05"/>
    </edge>
    <edge id=":0/8_8" function="internal">
        <lane id=":0/8_8_0" index="0" speed="13.90" length="16.10" shape="4.95,951.95 4.95,956.73 4.95,960.00 4.95,963.27 4.95,968.05"/>
        <lane id=":0/8_8_1" index="1" speed="13.90" length="16.10" shape="1.65,951.95 1.65,956.73 1.65,960.00 1.65,963.27 1.65,968.05"/>
    </edge>
    <edge id=":0/8_10" function="internal">
        <lane id=":0/8_10_0" index="0" speed="13.90" length="2.41" shape="1.65,951.95 0.83,953.19 0.00,953.60"/>
    </edge>
    <edge id=":0/8_15" function="internal">
        <lane id=":0/8_15_0" index="0" speed="13.90" length="2.41" shape="0.00,953.60 -0.82,953.19 -1.65,951.95"/>
    </edge>
    <edge id=":0/9_0" function="internal">
        <lane id=":0/9_0_0" index="0" speed="13.90" length="15.89" shape="6.55,1084.95 1.52,1084.23 -2.08,1082.08 -4.23,1078.48 -4.95,1073.45"/>
        <lane id=":0/9_0_1" index="1" speed="13.90" length="15.89" shape="6.55,1081.65 2.96,1081.14 0.40,1079.60 -1.14,1077.04 -1.65,1073.45"/>
    </edge>
    <edge id=":0/9_2" function="internal">
        <lane id=":0/9_2_0" index="0" speed="13.90" length="2.41" shape="6.55,1081.65 5.31,1080.83 4.90,1080.00"/>
    </edge>
    <edge id=":0/9_6" function="internal">
        <lane id=":0/9_6_0" index="0" speed="13.90" length="2.41" shape="4.90,1080.00 5.31,1079.18 6.55,1078.35"/>
    </edge>
    <edge id=":0/9_3" function="internal">
        <lane id=":0/9_3_0" index="0" speed="13.90" length="5.24" shape="4.95,1073.45 5.05,1074.15 5.35,1074.65 5.85,1074.95 6.55,1075.05"/>
        <lane id=":0/9_3_1" index="1" speed="13.90" length="5.24" shape="1.65,1073.45 1.96,1075.59 2.87,1077.13 4.41,1078.04 6.55,1078.35"/>
    </edge>
    <edge id=":0/9_5" function="internal">
        <lane id=":0/9_5_0" index="0" speed="13.90" length="2.41" shape="1.65,1073.45 0.83,1074.69 0.00,1075.10"/>
    </edge>
    <edge id=":0/9_7" function="internal">
        <lane id=":0/9_7_0" index="0" speed="13.90" length="2.41" shape="0.00,1075.10 -0.82,1074.69 -1.65,1073.45"/>
    </edge>
    <edge id=":1/0_0" function="internal">
        <lane id=":1/0_0_0" index="0" speed="13.90" length="5.00" shape="115.05,8.05 114.86,6.69 114.27,5.73 113.31,5.14 111.95,4.95"/>
    </edge>
    <edge id=":1/0_1" function="internal">
        <lane id=":1/0_1_0" index="0" speed="13.90" length="3.13" shape="118.35,8.05 118.79,4.95"/>
    </edge>
    <edge id=":1/0_2" function="internal">
        <lane id=":1/0_2_0" index="0" speed="13.90" length="2.41" shape="118.35,8.05 119.18,6.81 120.00,6.40"/>
    </edge>
    <edge id=":1/0_11" function="internal">
        <lane id=":1/0_11_0" index="0" speed="13.90" length="12.51" shape="118.79,4.95 118.96,3.81 120.77,0.77 123.81,-1.04 128.05,-1.65"/>
    </edge>
    <edge id=":1/0_12" function="internal">
        <lane id=":1/0_12_0" index="0" speed="13.90" length="2.41" shape="120.00,6.40 120.83,6.81 121.65,8.05"/>
    </edge>
    <edge id=":1/0_3" function="internal">
        <lane id=":1/0_3_0" index="0" speed="13.90" length="5.00" shape="128.05,4.95 126.69,5.14 125.73,5.72 125.14,6.69 124.95,8.05"/>
    </edge>
    <edge id=":1/0_4" function="internal">
        <lane id=":1/0_4_0" index="0" speed="13.90" length="16.10" shape="128.05,4.95 123.27,4.95 120.00,4.95 116.73,4.95 111.95,4.95"/>
        <lane id=":1/0_4_1" index="1" speed="13.90" length="16.10" shape="128.05,1.65 123.27,1.65 120.00,1.65 116.73,1.65 111.95,1.65"/>
    </edge>
    <edge id=":1/0_6" function="internal">
        <lane id=":1/0_6_0" index="0" speed="13.90" length="2.41" shape="128.05,1.65 126.81,0.83 126.40,0.00"/>
    </edge>
    <edge id=":1/0_13" function="internal">
        <lane id=":1/0_13_0" index="0" speed="13.90" length="2.41" shape="126.40,0.00 126.81,-0.82 128.05,-1.65"/>
    </edge>
    <edge id=":1/0_7" function="internal">
        <lane id=":1/0_7_0" index="0" speed="13.90" length="16.10" shape="111.95,-4.95 116.73,-4.95 120.00,-4.95 123.27,-4.95 128.05,-4.95"/>
        <lane id=":1/0_7_1" index="1" speed="13.90" length="16.10" shape="111.95,-1.65 116.73,-1.65 120.00,-1.65 123.27,-1.65 128.05,-1.65"/>
    </edge>
    <edge id=":1/0_9" function="internal">
        <lane id=":1/0_9_0" index="0" speed="13.90" length="8.84" shape="111.95,-1.65 116.19,-1.04 119.23,0.77 119.75,1.65"/>
    </edge>
    <edge id=":1/0_10" function="internal">
        <lane id=":1/0_10_0" index="0" speed="13.90" length="2.41" shape="111.95,-1.65 113.19,-0.83 113.60,-0.00"/>
    </edge>
    <edge id=":1/0_14" function="internal">
        <lane id=":1/0_14_0" index="0" speed="13.90" length="6.80" shape="119.75,1.65 121.04,3.81 121.65,8.05"/>
    </edge>
    <edge id=":1/0_15" function="internal">
        <lane id=":1/0_15_0" index="0" speed="13.90" length="2.41" shape="113.60,-0.00 113.19,0.82 111.95,1.65"/>
    </edge>
    <edge id=":1/1_0" function="internal">
        <lane id=":1/1_0_0" index="0" speed="13.90" length="5.00" shape="115.05,128.05 114.86,126.69 114.27,125.73 113.31,125.14 111.95,124.95"/>
    </edge>
    <edge id=":1/1_1" function="internal">
        <lane id=":1/1_1_0" index="0" speed="13.90" length="16.10" shape="115.05,128.05 115.05,123.27 115.05,120.00 115.05,116.73 115.05,111.95"/>
        <lane id=":1/1_1_1" index="1" speed="13.90" length="16.10" shape="118.35,128.05 118.35,123.27 118.35,120.00 118.35,116.73 118.35,111.95"/>
    </edge>
    <edge id=":1/1_3" function="internal">
        <lane id=":1/1_3_0" index="0" speed="13.90" length="6.80" shape="118.35,128.05 118.96,123.81 120.25,121.65"/>
    </edge>
    <edge id=":1/1_4" function="internal">
        <lane id=":1/1_4_0" index="0" speed="13.90" length="2.41" shape="118.35,128.05 119.18,126.81 120.00,126.40"/>
    </edge>
    <edge id=":1/1_18" function="internal">
        <lane id=":1/1_18_0" index="0" speed="13.90" length="8.84" shape="120.25,121.65 120.77,120.78 123.81,118.96 128.05,118.35"/>
    </edge>
    <edge id=":1/1_19" function="internal">
        <lane id=":1/1_19_0" index="0" speed="13.90" length="2.41" shape="120.00,126.40 120.83,126.81 121.65,128.05"/>
    </edge>
    <edge id=":1/1_5" function="internal">
        <lane id=":1/1_5_0" index="0" speed="13.90" length="5.00" shape="128.05,124.95 126.69,125.14 125.73,125.73 125.14,126.69 124.95,128.05"/>
    </edge>